release/cases/case533mt_hi.m
function mpc = case533mt_hi()
%CASE533MT  Power flow data for 533-bus distribution system from Malmer & Thorin
%   Please see CASEFORMAT for details on the case file format.
%
%   This case is based on real system data from the local DSO Kraftringen in
%   southern Sweden. The system covers about 20x30 km and serves about 30,000
%   inhabitants plus an industrial area. 
% 
%   In 2022, the total net load in the system ranged from -5 to 45 MW. 
%   The default loads in this case correspond to the net loads during
%   the maximum net load hour of 2022 (Pd_tot = 45 MW).
%
%   Data from ...
%       G. Malmer & L. Thorin, 
%       "Network reconfiguration for renewable generation maximization",
%       Master's thesis, Lund University, 2023
%       URL: http://lup.lub.lu.se/student-papers/record/9124806
%
%   Modifications:
%     v2 - 2025-06-14 (WGV)
%         - Set the tap parameter of branch # 1 and 2 to 1.0 to model
%           transformers with nominal turns ratio. This configuration 
%           benefits the convert_1p_to_3p function.

%   MATPOWER
%   Copyright (c) 2023 by Gabriel Malmer and Lovisa Thorin
%   Licensed under the Creative Commons Attribution 4.0 International license,
%   https://creativecommons.org/licenses/by/4.0/

%% MATPOWER Case Format : Version 2
mpc.version = '2';

%%-----  Power Flow Data  -----%%
%% system MVA base
mpc.baseMVA = 50/3; 

%% bus data

% Pd are net loads (pL - pG) from the maximum total net load hour of 2022, Dec 16 at 08:00
% Qd = 0.01*Pd

%	bus_i type Pd	        Qd	            Gs	Bs	area Vm	Va	baseKV	    zone Vmax	Vmin
mpc.bus = [ %% (Pd and Qd are given in single-phase MW & MVAr here)
    1	3	0	            0	            0	0	1	1	0	135/sqrt(3)	1	1	    1
    2	1	0	            0	            0	0	1	1	0	12/sqrt(3)	1	1.05	0.95;
    3	1	0	            0	            0	0	1	1	0	12/sqrt(3)	1	1.05	0.95;
    4	1	0	            0	            0	0	1	1	0	135/sqrt(3)	1	1.05	0.95;
    5	1	0	            0	            0	0	1	1	0	12/sqrt(3)	1	1.05	0.95;
    6	1	0.011666667	    0.000116667	    0	0	1	1	0	12/sqrt(3)	1	1.05	0.95;
    7	1	0.001333333	    1.33E-05	    0	0	1	1	0	12/sqrt(3)	1	1.05	0.95;
    8	1	-0.01	        -0.0001	        0	0	1	1	0	12/sqrt(3)	1	1.05	0.95;
    9	1	0.015430667	    0.000154307	    0	0	1	1	0	12/sqrt(3)	1	1.05	0.95;
    10	1	0.001333333	    1.33E-05	    0	0	1	1	0	12/sqrt(3)	1	1.05	0.95;
    11	1	0.005120333	    5.12E-05	    0	0	1	1	0	12/sqrt(3)	1	1.05	0.95;
    12	1	0.0045	        4.50E-05	    0	0	1	1	0	12/sqrt(3)	1	1.05	0.95;
    13	1	0.012233333	    0.000122333	    0	0	1	1	0	12/sqrt(3)	1	1.05	0.95;
    14	1	0.013601333	    0.000136013	    0	0	1	1	0	12/sqrt(3)	1	1.05	0.95;
    15	1	0.003033333	    3.03E-05	    0	0	1	1	0	12/sqrt(3)	1	1.05	0.95;
    16	1	0.003533333	    3.53E-05	    0	0	1	1	0	12/sqrt(3)	1	1.05	0.95;
    17	1	0.010909333	    0.000109093	    0	0	1	1	0	12/sqrt(3)	1	1.05	0.95;
    18	1	0.003145	    3.15E-05	    0	0	1	1	0	12/sqrt(3)	1	1.05	0.95;
    19	1	0.010404333	    0.000104043	    0	0	1	1	0	12/sqrt(3)	1	1.05	0.95;
    20	1	0.011139333	    0.000111393	    0	0	1	1	0	12/sqrt(3)	1	1.05	0.95;
    21	1	0.002033333	    2.03E-05	    0	0	1	1	0	12/sqrt(3)	1	1.05	0.95;
    22	1	0.043089	    0.00043089	    0	0	1	1	0	12/sqrt(3)	1	1.05	0.95;
    23	1	0.135866	    0.00135866	    0	0	1	1	0	12/sqrt(3)	1	1.05	0.95;
    24	1	0.036602333	    0.000366023	    0	0	1	1	0	12/sqrt(3)	1	1.05	0.95;
    25	1	0.060565667	    0.000605657	    0	0	1	1	0	12/sqrt(3)	1	1.05	0.95;
    26	1	0.026843	    0.00026843	    0	0	1	1	0	12/sqrt(3)	1	1.05	0.95;
    27	1	0.002333333	    2.33E-05	    0	0	1	1	0	12/sqrt(3)	1	1.05	0.95;
    28	1	0.116758667	    0.001167587	    0	0	1	1	0	12/sqrt(3)	1	1.05	0.95;
    29	1	0.01372	        0.0001372	    0	0	1	1	0	12/sqrt(3)	1	1.05	0.95;
    30	1	0.137666667	    0.001376667	    0	0	1	1	0	12/sqrt(3)	1	1.05	0.95;
    31	1	0	            0	            0	0	1	1	0	12/sqrt(3)	1	1.05	0.95;
    32	1	0.073793667	    0.000737937	    0	0	1	1	0	12/sqrt(3)	1	1.05	0.95;
    33	1	0.091932333	    0.000919323	    0	0	1	1	0	12/sqrt(3)	1	1.05	0.95;
    34	1	0.152158667	    0.001521587	    0	0	1	1	0	12/sqrt(3)	1	1.05	0.95;
    35	1	0.104275	    0.00104275	    0	0	1	1	0	12/sqrt(3)	1	1.05	0.95;
    36	1	0.114037	    0.00114037	    0	0	1	1	0	12/sqrt(3)	1	1.05	0.95;
    37	1	0	            0	            0	0	1	1	0	12/sqrt(3)	1	1.05	0.95;
    38	1	0.127620333	    0.001276203	    0	0	1	1	0	12/sqrt(3)	1	1.05	0.95;
    39	1	0.045260333	    0.000452603	    0	0	1	1	0	12/sqrt(3)	1	1.05	0.95;
    40	1	0.104846333	    0.001048463	    0	0	1	1	0	12/sqrt(3)	1	1.05	0.95;
    41	1	0.008302667	    8.30E-05	    0	0	1	1	0	12/sqrt(3)	1	1.05	0.95;
    42	1	0.001666667	    1.67E-05	    0	0	1	1	0	12/sqrt(3)	1	1.05	0.95;
    43	1	0.001	        1.00E-05	    0	0	1	1	0	12/sqrt(3)	1	1.05	0.95;
    44	1	0.128162333	    0.001281623	    0	0	1	1	0	12/sqrt(3)	1	1.05	0.95;
    45	1	0.022831667	    0.000228317	    0	0	1	1	0	12/sqrt(3)	1	1.05	0.95;
    46	1	0.021797	    0.00021797	    0	0	1	1	0	12/sqrt(3)	1	1.05	0.95;
    47	1	-0.020333333	-0.000203333	0	0	1	1	0	12/sqrt(3)	1	1.05	0.95;
    48	1	0.011620333	    0.000116203	    0	0	1	1	0	12/sqrt(3)	1	1.05	0.95;
    49	1	0.0133	        0.000133	    0	0	1	1	0	12/sqrt(3)	1	1.05	0.95;
    50	1	0.014470667	    0.000144707	    0	0	1	1	0	12/sqrt(3)	1	1.05	0.95;
    51	1	0.002515	    2.52E-05	    0	0	1	1	0	12/sqrt(3)	1	1.05	0.95;
    52	1	-0.011666667	-0.000116667	0	0	1	1	0	12/sqrt(3)	1	1.05	0.95;
    53	1	0.009918	    9.92E-05	    0	0	1	1	0	12/sqrt(3)	1	1.05	0.95;
    54	1	0.008893333	    8.89E-05	    0	0	1	1	0	12/sqrt(3)	1	1.05	0.95;
    55	1	0.003348667	    3.35E-05	    0	0	1	1	0	12/sqrt(3)	1	1.05	0.95;
    56	1	0.038106	    0.00038106	    0	0	1	1	0	12/sqrt(3)	1	1.05	0.95;
    57	1	0.098204667	    0.000982047	    0	0	1	1	0	12/sqrt(3)	1	1.05	0.95;
    58	1	0.02217	        0.0002217	    0	0	1	1	0	12/sqrt(3)	1	1.05	0.95;
    59	1	0.013351	    0.00013351	    0	0	1	1	0	12/sqrt(3)	1	1.05	0.95;
    60	1	0.134312333	    0.001343123	    0	0	1	1	0	12/sqrt(3)	1	1.05	0.95;
    61	1	0.121267	    0.00121267	    0	0	1	1	0	12/sqrt(3)	1	1.05	0.95;
    62	1	0.098485667	    0.000984857	    0	0	1	1	0	12/sqrt(3)	1	1.05	0.95;
    63	1	0.211801667	    0.002118017	    0	0	1	1	0	12/sqrt(3)	1	1.05	0.95;
    64	1	0.078207667	    0.000782077	    0	0	1	1	0	12/sqrt(3)	1	1.05	0.95;
    65	1	0.029	        0.00029	        0	0	1	1	0	12/sqrt(3)	1	1.05	0.95;
    66	1	0.146945	    0.00146945	    0	0	1	1	0	12/sqrt(3)	1	1.05	0.95;
    67	1	0.166857	    0.00166857	    0	0	1	1	0	12/sqrt(3)	1	1.05	0.95;
    68	1	0.199800667	    0.001998007	    0	0	1	1	0	12/sqrt(3)	1	1.05	0.95;
    69	1	0.140727	    0.00140727	    0	0	1	1	0	12/sqrt(3)	1	1.05	0.95;
    70	1	0.066196	    0.00066196	    0	0	1	1	0	12/sqrt(3)	1	1.05	0.95;
    71	1	0.045955667	    0.000459557	    0	0	1	1	0	12/sqrt(3)	1	1.05	0.95;
    72	1	1.380666667	    0.013806667	    0	0	1	1	0	12/sqrt(3)	1	1.05	0.95;
    73	1	0.155333333	    0.001553333	    0	0	1	1	0	12/sqrt(3)	1	1.05	0.95;
    74	1	0.093	        0.00093	        0	0	1	1	0	12/sqrt(3)	1	1.05	0.95;
    75	1	0.031188	    0.00031188	    0	0	1	1	0	12/sqrt(3)	1	1.05	0.95;
    76	1	0.038333333	    0.000383333	    0	0	1	1	0	12/sqrt(3)	1	1.05	0.95;
    77	1	0.007829	    7.83E-05	    0	0	1	1	0	12/sqrt(3)	1	1.05	0.95;
    78	1	0.036480667	    0.000364807	    0	0	1	1	0	12/sqrt(3)	1	1.05	0.95;
    79	1	0.015247	    0.00015247	    0	0	1	1	0	12/sqrt(3)	1	1.05	0.95;
    80	1	0.005155	    5.16E-05	    0	0	1	1	0	12/sqrt(3)	1	1.05	0.95;
    81	1	0	            0	            0	0	1	1	0	12/sqrt(3)	1	1.05	0.95;
    82	1	0.01534	        0.0001534	    0	0	1	1	0	12/sqrt(3)	1	1.05	0.95;
    83	1	0.016132333	    0.000161323	    0	0	1	1	0	12/sqrt(3)	1	1.05	0.95;
    84	1	0.029594667	    0.000295947	    0	0	1	1	0	12/sqrt(3)	1	1.05	0.95;
    85	1	0.023695333	    0.000236953	    0	0	1	1	0	12/sqrt(3)	1	1.05	0.95;
    86	1	0.011241667	    0.000112417	    0	0	1	1	0	12/sqrt(3)	1	1.05	0.95;
    87	1	0.007293333	    7.29E-05	    0	0	1	1	0	12/sqrt(3)	1	1.05	0.95;
    88	1	0.004067333	    4.07E-05	    0	0	1	1	0	12/sqrt(3)	1	1.05	0.95;
    89	1	0.006327667	    6.33E-05	    0	0	1	1	0	12/sqrt(3)	1	1.05	0.95;
    90	1	0.014197667	    0.000141977	    0	0	1	1	0	12/sqrt(3)	1	1.05	0.95;
    91	1	0.010927	    0.00010927	    0	0	1	1	0	12/sqrt(3)	1	1.05	0.95;
    92	1	0.007091	    7.09E-05	    0	0	1	1	0	12/sqrt(3)	1	1.05	0.95;
    93	1	0.017479667	    0.000174797	    0	0	1	1	0	12/sqrt(3)	1	1.05	0.95;
    94	1	0.005546	    5.55E-05	    0	0	1	1	0	12/sqrt(3)	1	1.05	0.95;
    95	1	0.00582	        5.82E-05	    0	0	1	1	0	12/sqrt(3)	1	1.05	0.95;
    96	1	0.009427333	    9.43E-05	    0	0	1	1	0	12/sqrt(3)	1	1.05	0.95;
    97	1	0.002958667	    2.96E-05	    0	0	1	1	0	12/sqrt(3)	1	1.05	0.95;
    98	1	0.001629	    1.63E-05	    0	0	1	1	0	12/sqrt(3)	1	1.05	0.95;
    99	1	0.002087667	    2.09E-05	    0	0	1	1	0	12/sqrt(3)	1	1.05	0.95;
    100	1	0.004411333	    4.41E-05	    0	0	1	1	0	12/sqrt(3)	1	1.05	0.95;
    101	1	0.025572	    0.00025572	    0	0	1	1	0	12/sqrt(3)	1	1.05	0.95;
    102	1	0.015473333	    0.000154733	    0	0	1	1	0	12/sqrt(3)	1	1.05	0.95;
    103	1	0.005118	    5.12E-05	    0	0	1	1	0	12/sqrt(3)	1	1.05	0.95;
    104	1	0.004627	    4.63E-05	    0	0	1	1	0	12/sqrt(3)	1	1.05	0.95;
    105	1	0.054338667	    0.000543387	    0	0	1	1	0	12/sqrt(3)	1	1.05	0.95;
    106	1	0.002591	    2.59E-05	    0	0	1	1	0	12/sqrt(3)	1	1.05	0.95;
    107	1	0.073044333	    0.000730443	    0	0	1	1	0	12/sqrt(3)	1	1.05	0.95;
    108	1	0.049831	    0.00049831	    0	0	1	1	0	12/sqrt(3)	1	1.05	0.95;
    109	1	0.007702667	    7.70E-05	    0	0	1	1	0	12/sqrt(3)	1	1.05	0.95;
    110	1	0.025197	    0.00025197	    0	0	1	1	0	12/sqrt(3)	1	1.05	0.95;
    111	1	0.0088	        8.80E-05	    0	0	1	1	0	12/sqrt(3)	1	1.05	0.95;
    112	1	0.005495	    5.50E-05	    0	0	1	1	0	12/sqrt(3)	1	1.05	0.95;
    113	1	0.005070333	    5.07E-05	    0	0	1	1	0	12/sqrt(3)	1	1.05	0.95;
    114	1	-0.010666667	-0.000106667	0	0	1	1	0	12/sqrt(3)	1	1.05	0.95;
    115	1	0.003363667	    3.36E-05	    0	0	1	1	0	12/sqrt(3)	1	1.05	0.95;
    116	1	0.004221	    4.22E-05	    0	0	1	1	0	12/sqrt(3)	1	1.05	0.95;
    117	1	0.008039667	    8.04E-05	    0	0	1	1	0	12/sqrt(3)	1	1.05	0.95;
    118	1	0.007395333	    7.40E-05	    0	0	1	1	0	12/sqrt(3)	1	1.05	0.95;
    119	1	0.015860667	    0.000158607	    0	0	1	1	0	12/sqrt(3)	1	1.05	0.95;
    120	1	0.007576333	    7.58E-05	    0	0	1	1	0	12/sqrt(3)	1	1.05	0.95;
    121	1	0.007333333	    7.33E-05	    0	0	1	1	0	12/sqrt(3)	1	1.05	0.95;
    122	1	0.007114667	    7.11E-05	    0	0	1	1	0	12/sqrt(3)	1	1.05	0.95;
    123	1	-0.009	        -9.00E-05	    0	0	1	1	0	12/sqrt(3)	1	1.05	0.95;
    124	1	0.004520667	    4.52E-05	    0	0	1	1	0	12/sqrt(3)	1	1.05	0.95;
    125	1	0.008247333	    8.25E-05	    0	0	1	1	0	12/sqrt(3)	1	1.05	0.95;
    126	1	0.006649	    6.65E-05	    0	0	1	1	0	12/sqrt(3)	1	1.05	0.95;
    127	1	0.005395	    5.40E-05	    0	0	1	1	0	12/sqrt(3)	1	1.05	0.95;
    128	1	0.013666667	    0.000136667	    0	0	1	1	0	12/sqrt(3)	1	1.05	0.95;
    129	1	0.004836667	    4.84E-05	    0	0	1	1	0	12/sqrt(3)	1	1.05	0.95;
    130	1	0.000845333	    8.45E-06	    0	0	1	1	0	12/sqrt(3)	1	1.05	0.95;
    131	1	0.001126667	    1.13E-05	    0	0	1	1	0	12/sqrt(3)	1	1.05	0.95;
    132	1	0.012161333	    0.000121613	    0	0	1	1	0	12/sqrt(3)	1	1.05	0.95;
    133	1	0.013858333	    0.000138583	    0	0	1	1	0	12/sqrt(3)	1	1.05	0.95;
    134	1	0.003825667	    3.83E-05	    0	0	1	1	0	12/sqrt(3)	1	1.05	0.95;
    135	1	0.045719667	    0.000457197	    0	0	1	1	0	12/sqrt(3)	1	1.05	0.95;
    136	1	0.016049667	    0.000160497	    0	0	1	1	0	12/sqrt(3)	1	1.05	0.95;
    137	1	0.00561	        5.61E-05	    0	0	1	1	0	12/sqrt(3)	1	1.05	0.95;
    138	1	0.001440333	    1.44E-05	    0	0	1	1	0	12/sqrt(3)	1	1.05	0.95;
    139	1	0.006665333	    6.67E-05	    0	0	1	1	0	12/sqrt(3)	1	1.05	0.95;
    140	1	0.025101333	    0.000251013	    0	0	1	1	0	12/sqrt(3)	1	1.05	0.95;
    141	1	0.011075	    0.00011075	    0	0	1	1	0	12/sqrt(3)	1	1.05	0.95;
    142	1	0.011753	    0.00011753	    0	0	1	1	0	12/sqrt(3)	1	1.05	0.95;
    143	1	0.010121667	    0.000101217	    0	0	1	1	0	12/sqrt(3)	1	1.05	0.95;
    144	1	0.018765	    0.00018765	    0	0	1	1	0	12/sqrt(3)	1	1.05	0.95;
    145	1	0.026696333	    0.000266963	    0	0	1	1	0	12/sqrt(3)	1	1.05	0.95;
    146	1	0.004990667	    4.99E-05	    0	0	1	1	0	12/sqrt(3)	1	1.05	0.95;
    147	1	0.011445	    0.00011445	    0	0	1	1	0	12/sqrt(3)	1	1.05	0.95;
    148	1	0.012050333	    0.000120503	    0	0	1	1	0	12/sqrt(3)	1	1.05	0.95;
    149	1	0.002588	    2.59E-05	    0	0	1	1	0	12/sqrt(3)	1	1.05	0.95;
    150	1	0.018047	    0.00018047	    0	0	1	1	0	12/sqrt(3)	1	1.05	0.95;
    151	1	0.026814333	    0.000268143	    0	0	1	1	0	12/sqrt(3)	1	1.05	0.95;
    152	1	0.033141667	    0.000331417	    0	0	1	1	0	12/sqrt(3)	1	1.05	0.95;
    153	1	0	            0	            0	0	1	1	0	12/sqrt(3)	1	1.05	0.95;
    154	1	0.009970667	    9.97E-05	    0	0	1	1	0	12/sqrt(3)	1	1.05	0.95;
    155	1	0	            0	            0	0	1	1	0	12/sqrt(3)	1	1.05	0.95;
    156	1	0	            0	            0	0	1	1	0	12/sqrt(3)	1	1.05	0.95;
    157	1	0.005254667	    5.25E-05	    0	0	1	1	0	12/sqrt(3)	1	1.05	0.95;
    158	1	0	            0	            0	0	1	1	0	12/sqrt(3)	1	1.05	0.95;
    159	1	0.011949667	    0.000119497	    0	0	1	1	0	12/sqrt(3)	1	1.05	0.95;
    160	1	0	            0	            0	0	1	1	0	12/sqrt(3)	1	1.05	0.95;
    161	1	0.011854667	    0.000118547	    0	0	1	1	0	12/sqrt(3)	1	1.05	0.95;
    162	1	0.003305	    3.31E-05	    0	0	1	1	0	12/sqrt(3)	1	1.05	0.95;
    163	1	0.011937	    0.00011937	    0	0	1	1	0	12/sqrt(3)	1	1.05	0.95;
    164	1	8.20E-05	    8.20E-07	    0	0	1	1	0	12/sqrt(3)	1	1.05	0.95;
    165	1	0.007242667	    7.24E-05	    0	0	1	1	0	12/sqrt(3)	1	1.05	0.95;
    166	1	0.005184	    5.18E-05	    0	0	1	1	0	12/sqrt(3)	1	1.05	0.95;
    167	1	0.135419333	    0.001354193	    0	0	1	1	0	12/sqrt(3)	1	1.05	0.95;
    168	1	0	            0	            0	0	1	1	0	12/sqrt(3)	1	1.05	0.95;
    169	1	0.162	        0.00162	        0	0	1	1	0	12/sqrt(3)	1	1.05	0.95;
    170	1	0.065948333	    0.000659483	    0	0	1	1	0	12/sqrt(3)	1	1.05	0.95;
    171	1	0.082333333	    0.000823333	    0	0	1	1	0	12/sqrt(3)	1	1.05	0.95;
    172	1	0	            0	            0	0	1	1	0	12/sqrt(3)	1	1.05	0.95;
    173	1	-0.018666667	-0.000186667	0	0	1	1	0	12/sqrt(3)	1	1.05	0.95;
    174	1	-0.021333333	-0.000213333	0	0	1	1	0	12/sqrt(3)	1	1.05	0.95;
    175	1	-0.017666667	-0.000176667	0	0	1	1	0	12/sqrt(3)	1	1.05	0.95;
    176	1	-0.013333333	-0.000133333	0	0	1	1	0	12/sqrt(3)	1	1.05	0.95;
    177	1	-0.017333333	-0.000173333	0	0	1	1	0	12/sqrt(3)	1	1.05	0.95;
    178	1	0.006391333	    6.39E-05	    0	0	1	1	0	12/sqrt(3)	1	1.05	0.95;
    179	1	0	            0	            0	0	1	1	0	12/sqrt(3)	1	1.05	0.95;
    180	1	0.136340333	    0.001363403	    0	0	1	1	0	12/sqrt(3)	1	1.05	0.95;
    181	1	0.036841667	    0.000368417	    0	0	1	1	0	12/sqrt(3)	1	1.05	0.95;
    182	1	0.015101333	    0.000151013	    0	0	1	1	0	12/sqrt(3)	1	1.05	0.95;
    183	1	0.029852333	    0.000298523	    0	0	1	1	0	12/sqrt(3)	1	1.05	0.95;
    184	1	0.005266667	    5.27E-05	    0	0	1	1	0	12/sqrt(3)	1	1.05	0.95;
    185	1	0.005784	    5.78E-05	    0	0	1	1	0	12/sqrt(3)	1	1.05	0.95;
    186	1	0.006896667	    6.90E-05	    0	0	1	1	0	12/sqrt(3)	1	1.05	0.95;
    187	1	0.005666667	    5.67E-05	    0	0	1	1	0	12/sqrt(3)	1	1.05	0.95;
    188	1	0.004568	    4.57E-05	    0	0	1	1	0	12/sqrt(3)	1	1.05	0.95;
    189	1	0.007633333	    7.63E-05	    0	0	1	1	0	12/sqrt(3)	1	1.05	0.95;
    190	1	0.004266667	    4.27E-05	    0	0	1	1	0	12/sqrt(3)	1	1.05	0.95;
    191	1	0.004266667	    4.27E-05	    0	0	1	1	0	12/sqrt(3)	1	1.05	0.95;
    192	1	0.015233333	    0.000152333	    0	0	1	1	0	12/sqrt(3)	1	1.05	0.95;
    193	1	0.012366667	    0.000123667	    0	0	1	1	0	12/sqrt(3)	1	1.05	0.95;
    194	1	0.039332333	    0.000393323	    0	0	1	1	0	12/sqrt(3)	1	1.05	0.95;
    195	1	-0.000333333	-3.33E-06	    0	0	1	1	0	12/sqrt(3)	1	1.05	0.95;
    196	1	0.027	        0.00027	        0	0	1	1	0	12/sqrt(3)	1	1.05	0.95;
    197	1	0.00124	        1.24E-05	    0	0	1	1	0	12/sqrt(3)	1	1.05	0.95;
    198	1	0.007508667	    7.51E-05	    0	0	1	1	0	12/sqrt(3)	1	1.05	0.95;
    199	1	0.002425333	    2.43E-05	    0	0	1	1	0	12/sqrt(3)	1	1.05	0.95;
    200	1	0.003037	    3.04E-05	    0	0	1	1	0	12/sqrt(3)	1	1.05	0.95;
...
];

%% generator data

%	bus	Pg  Qg  Qmax    Qmin	Vg	mBase	status  Pmax    Pmin	Pc1	Pc2	Qc1min Qc1max Qc2min Qc2max	ramp_agc ramp_10 ramp_30 ramp_q apf
mpc.gen = [
    1	0	0	50/3    -50/3   1	50/3	1	    50/3    -50/3	0	0	0	0	0	0	0	0; % Only slack bus included
];

%% branch data

% Sbase_1ph = 50/3 MVA
% Vbase_LN = 135/sqrt(3) kV for lines 1-2, 1-3 and 4-1
% Vbase_LN = 12/sqrt(3) kV for remaining lines

% status = {0,1} => {disconnected,connected} in normal radial topology

%	fbus tbus   r           x           b	rateA	    rateB rateC	ratio angle	status angmin angmax ratedCurr
mpc.branch = [   %% (r, x and ratedCurr specified in p.u. here)
    1	2	    0.000289183	0.000475417	0	53.00075471	0	0	1	0	1	-360	360	3.180045283;
    1	3	    0.000328467	0.000662892	0	54.55960044	0	0	1	0	1	-360	360	3.273576026;
    4	1	    0.000961394	0.001996898	0	50.66248612	0	0	0	0	1	-360	360	3.039749167;
    5	2	    0.247364266	0.139251062	0	5.40399852	0	0	0	0	1	-360	360	0.324239911;
    5	6	    0.027863723	0.004373436	0	1.662768775	0	0	0	0	1	-360	360	0.099766127;
    6	7	    0.398977986	0.066484391	0	1.004589468	0	0	0	0	1	-360	360	0.060275368;
    7	8	    0.067883681	0.012975432	0	1.073871501	0	0	0	0	1	-360	360	0.06443229;
    5	9	    0.208766667	0.063536421	0	1.420281662	0	0	0	0	1	-360	360	0.0852169;
    9	10	    0.066111111	0.020120374	0	1.420281662	0	0	0	0	1	-360	360	0.0852169;
    11	10  	0.095	    0.029226847	0	1.420281662	0	0	0	0	1	-360	360	0.0852169;
    11	12  	0.090711111	0.028244336	0	1.420281662	0	0	0	0	1	-360	360	0.0852169;
    12	13  	0.067577778	0.020566742	0	1.420281662	0	0	0	0	1	-360	360	0.0852169;
    13	14  	0.156288264	0.029873274	0	1.073871501	0	0	0	0	1	-360	360	0.06443229;
    14	15  	0.075133333	0.022866213	0	1.420281662	0	0	0	0	1	-360	360	0.0852169;
    15	16  	0.219155556	0.066698194	0	1.420281662	0	0	0	0	1	-360	360	0.0852169;
    16	17  	0.0978	    0.029764627	0	1.420281662	0	0	0	0	1	-360	360	0.0852169;
    17	18  	0.235416667	0.023420137	0	0.692820323	0	0	0	0	1	-360	360	0.041569219;
    12	19  	0.294904514	0.052741123	0	1.004589468	0	0	0	0	1	-360	360	0.060275368;
    11	20  	0.139822222	0.043160902	0	1.420281662	0	0	0	0	1	-360	360	0.0852169;
    20	21  	0.137592431	0.026299712	0	1.073871501	0	0	0	0	1	-360	360	0.06443229;
    5	22	    0.239918542	0.041684789	0	0.969948452	0	0	0	0	1	-360	360	0.058196907;
    5	23	    0.043220833	0.024010276	0	2.078460969	0	0	0	0	1	-360	360	0.124707658;
    24	23  	0.090162882	0.014582553	0	0.969948452	0	0	0	0	1	-360	360	0.058196907;
    24	25  	0.04400441	0.008386089	0	0.969948452	0	0	0	0	1	-360	360	0.058196907;
    25	26  	0.074835486	0.012553608	0	0.969948452	0	0	0	0	1	-360	360	0.058196907;
    26	27  	0.169541493	0.026580165	0	0.831384388	0	0	0	0	1	-360	360	0.049883063;
    2	3	    0.032371494	0.017194544	0	7.343895424	0	0	0	0	0	-360	360	0.440633725;
    28	2	    0.015817569	0.008259662	0	1.80133284	0	0	0	0	1	-360	360	0.10807997;
    29	28  	0.04492691	0.022563835	0	1.80133284	0	0	0	0	1	-360	360	0.10807997;
    29	30  	0.049522083	0.026264914	0	1.80133284	0	0	0	0	1	-360	360	0.10807997;
    31	30  	0.044647396	0.026960865	0	2.078460969	0	0	0	0	1	-360	360	0.124707658;
    31	32  	0.00984809	0.006746897	0	2.355589098	0	0	0	0	1	-360	360	0.141335346;
    32	33  	0.014038229	0.008455466	0	2.078460969	0	0	0	0	1	-360	360	0.124707658;
    34	33  	0.04824875	0.025954464	0	1.80133284	0	0	0	0	1	-360	360	0.10807997;
    34	35  	0.033796771	0.016953801	0	1.80133284	0	0	0	0	1	-360	360	0.10807997;
    36	2	    0.090628368	0.047669523	0	1.80133284	0	0	0	0	1	-360	360	0.10807997;
    36	34  	0.014013646	0.009037206	0	1.80133284	0	0	0	0	0	-360	360	0.10807997;
    36	37  	0.170242083	0.085905542	0	1.80133284	0	0	0	0	1	-360	360	0.10807997;
    38	2	    0.025255833	0.014019794	0	2.078460969	0	0	0	0	1	-360	360	0.124707658;
    38	39  	0.021056806	0.010625128	0	1.80133284	0	0	0	0	1	-360	360	0.10807997;
    40	39  	0.020606771	0.010398344	0	1.80133284	0	0	0	0	1	-360	360	0.10807997;
    6	41	    0.142377674	0.024212407	0	1.004589468	0	0	0	0	1	-360	360	0.060275368;
    42	41  	0.149054757	0.025026167	0	1.004589468	0	0	0	0	1	-360	360	0.060275368;
    42	43  	0.074605278	0.014260213	0	1.073871501	0	0	0	0	1	-360	360	0.06443229;
    5	44	    0.135366736	0.022557072	0	1.004589468	0	0	0	0	1	-360	360	0.060275368;
    44	22  	0.101668611	0.016544849	0	0.969948452	0	0	0	0	0	-360	360	0.058196907;
    22	45  	0.183953646	0.030653436	0	1.004589468	0	0	0	0	1	-360	360	0.060275368;
    5	46	    0.042744444	0.013008921	0	1.420281662	0	0	0	0	1	-360	360	0.0852169;
    23	46  	0.052677778	0.016032049	0	1.420281662	0	0	0	0	0	-360	360	0.0852169;
    5	47	    0.506677778	0.154203221	0	1.420281662	0	0	0	0	1	-360	360	0.0852169;
    5	48	    0.263688889	0.080251548	0	1.420281662	0	0	0	0	1	-360	360	0.0852169;
    49	48  	0.074255556	0.022599069	0	1.420281662	0	0	0	0	1	-360	360	0.0852169;
    50	49  	0.099855556	0.030390218	0	1.420281662	0	0	0	0	1	-360	360	0.0852169;
    51	50  	0.145711111	0.04434598	0	1.420281662	0	0	0	0	1	-360	360	0.0852169;
    52	51  	0.075566667	0.022998094	0	1.420281662	0	0	0	0	1	-360	360	0.0852169;
    52	17  	0.1074	    0.033507049	0	1.420281662	0	0	0	0	0	-360	360	0.0852169;
    49	53  	0.109838021	0.01830305	0	1.004589468	0	0	0	0	1	-360	360	0.060275368;
    53	54  	0.244916667	0.024365233	0	0.692820323	0	0	0	0	1	-360	360	0.041569219;
    55	48  	0.416416667	0.041426699	0	0.692820323	0	0	0	0	1	-360	360	0.041569219;
    5	56	    0.0834	    0.025382105	0	1.420281662	0	0	0	0	1	-360	360	0.0852169;
    56	57  	0.114890347	0.018636517	0	0.969948452	0	0	0	0	1	-360	360	0.058196907;
    57	58  	0.15733434	0.025462281	0	0.969948452	0	0	0	0	1	-360	360	0.058196907;
    59	58  	0.557958333	0.055507797	0	0.692820323	0	0	0	0	1	-360	360	0.041569219;
    57	25  	0.219097604	0.046946193	0	0.969948452	0	0	0	0	0	-360	360	0.058196907;
    60	2	    0.084021528	0.046676104	0	2.078460969	0	0	0	0	1	-360	360	0.124707658;
    61	60  	0.0304425	0.016911586	0	2.078460969	0	0	0	0	1	-360	360	0.124707658;
    62	61  	0.022760694	0.012644147	0	2.078460969	0	0	0	0	1	-360	360	0.124707658;
    63	2	    0.050245903	0.02779055	0	1.80133284	0	0	0	0	1	-360	360	0.10807997;
    64	63  	0.09060441	0.049270645	0	1.073871501	0	0	0	0	1	-360	360	0.06443229;
    65	64  	0.036736667	0.016807521	0	1.835973856	0	0	0	0	1	-360	360	0.110158431;
    65	66  	0.028608229	0.014435945	0	1.80133284	0	0	0	0	1	-360	360	0.10807997;
    67	66  	0.165348924	0.035577555	0	1.039230485	0	0	0	0	0	-360	360	0.062353829;
    68	67  	0.142671424	0.03071594	0	1.039230485	0	0	0	0	1	-360	360	0.062353829;
    64	69  	0.064307361	0.035724381	0	2.078460969	0	0	0	0	1	-360	360	0.124707658;
    62	69  	0.079568472	0.044202318	0	2.078460969	0	0	0	0	0	-360	360	0.124707658;
    69	70  	0.054618611	0.025385814	0	1.80133284	0	0	0	0	1	-360	360	0.10807997;
    70	71  	0.025356597	0.011398854	0	1.80133284	0	0	0	0	1	-360	360	0.10807997;
    72	2	    0.006648256	0.003693276	0	8.313843876	0	0	0	0	1	-360	360	0.498830633;
    73	74  	0.050230694	0.027904433	0	2.078460969	0	0	0	0	1	-360	360	0.124707658;
    74	2	    0.025733194	0.014295446	0	2.078460969	0	0	0	0	1	-360	360	0.124707658;
    75	73	    0.012142083	0.006888378	0	2.078460969	0	0	0	0	0	-360	360	0.124707658;
    72	76	    0.049057639	0.027252771	0	2.078460969	0	0	0	0	1	-360	360	0.124707658;
    75	76	    0.048884444	0.027444975	0	2.078460969	0	0	0	0	1	-360	360	0.124707658;
    77	2	    0.574452639	0.105789533	0	0.831384388	0	0	0	0	1	-360	360	0.049883063;
    75	77	    0.222536944	0.036927022	0	0.969948452	0	0	0	0	0	-360	360	0.058196907;
    75	78	    0.647027222	0.139436645	0	0.969948452	0	0	0	0	1	-360	360	0.058196907;
    78	79	    0.238282847	0.039368737	0	0.969948452	0	0	0	0	1	-360	360	0.058196907;
    80	79	    0.247356632	0.046012115	0	0.969948452	0	0	0	0	1	-360	360	0.058196907;
    81	2	    0.046489327	0.025826008	0	4.156921938	0	0	0	0	1	-360	360	0.249415316;
    77	82	    0.154396424	0.024971407	0	0.969948452	0	0	0	0	1	-360	360	0.058196907;
    83	3	    0.071801944	0.037280778	0	1.80133284	0	0	0	0	1	-360	360	0.10807997;
    83	84	    0.145632326	0.039760018	0	1.212435565	0	0	0	0	1	-360	360	0.072746134;
    84	85	    0.0665	    0.020238729	0	1.420281662	0	0	0	0	1	-360	360	0.0852169;
    86	85	    0.14211059	0.027163323	0	1.073871501	0	0	0	0	1	-360	360	0.06443229;
    87	85	    0.108955556	0.033159729	0	1.420281662	0	0	0	0	1	-360	360	0.0852169;
    87	88	    0.174583472	0.031018428	0	1.004589468	0	0	0	0	1	-360	360	0.060275368;
    88	89	    0.202983333	0.033824481	0	1.004589468	0	0	0	0	1	-360	360	0.060275368;
    90	87	    0.030888889	0.00940078	0	1.420281662	0	0	0	0	1	-360	360	0.0852169;
    91	90	    0.089866667	0.027350182	0	1.420281662	0	0	0	0	1	-360	360	0.0852169;
    91	92	    0.1394175	0.026613653	0	1.004589468	0	0	0	0	1	-360	360	0.060275368;
    93	91	    0.069133333	0.021040162	0	1.420281662	0	0	0	0	1	-360	360	0.0852169;
    93	94	    0.089666667	0.027289314	0	1.420281662	0	0	0	0	1	-360	360	0.0852169;
    95	94	    0.085977778	0.026166631	0	1.420281662	0	0	0	0	1	-360	360	0.0852169;
    96	95	    0.155377778	0.047287951	0	1.420281662	0	0	0	0	1	-360	360	0.0852169;
    97	96	    0.253416667	0.025210845	0	0.692820323	0	0	0	0	1	-360	360	0.041569219;
    98	96	    0.129112535	0.021514892	0	1.004589468	0	0	0	0	1	-360	360	0.060275368;
    99	98	    0.204941944	0.034150857	0	1.004589468	0	0	0	0	1	-360	360	0.060275368;
    99	100	    0.330416667	0.032871095	0	0.692820323	0	0	0	0	1	-360	360	0.041569219;
    84	101	    0.18617934	0.030111838	0	0.969948452	0	0	0	0	1	-360	360	0.058196907;
    101	102	    0.168462813	0.027255389	0	0.969948452	0	0	0	0	1	-360	360	0.058196907;
    103	102	    0.143077778	0.043544547	0	1.420281662	0	0	0	0	1	-360	360	0.0852169;
    104	103	    0.362375	0.03605043	0	0.692820323	0	0	0	0	1	-360	360	0.041569219;
    103	105	    0.122079306	0.067922978	0	2.078460969	0	0	0	0	1	-360	360	0.124707658;
    106	105	    0.153704931	0.026831274	0	1.004589468	0	0	0	0	1	-360	360	0.060275368;
    105	107	    0.065530486	0.015646549	0	1.212435565	0	0	0	0	1	-360	360	0.072746134;
    107	108	    0.087890938	0.019427151	0	1.212435565	0	0	0	0	1	-360	360	0.072746134;
    109	3	    0.353377431	0.177703643	0	1.80133284	0	0	0	0	1	-360	360	0.10807997;
    109	110	    0.221488889	0.067408325	0	1.420281662	0	0	0	0	1	-360	360	0.0852169;
    111	110	    0.078588889	0.023917883	0	1.420281662	0	0	0	0	1	-360	360	0.0852169;
    111	112	    0.108177778	0.032923018	0	1.420281662	0	0	0	0	1	-360	360	0.0852169;
    112	113	    0.105922222	0.032236559	0	1.420281662	0	0	0	0	1	-360	360	0.0852169;
    114	113	    0.100433333	0.031636165	0	1.420281662	0	0	0	0	1	-360	360	0.0852169;
    114	115	    0.108611458	0.034103843	0	1.073871501	0	0	0	0	1	-360	360	0.06443229;
    115	116	    0.129112535	0.021514892	0	1.004589468	0	0	0	0	1	-360	360	0.060275368;
    115	117	    0.093466667	0.028445812	0	1.420281662	0	0	0	0	1	-360	360	0.0852169;
    117	118	    0.038955556	0.011855803	0	1.420281662	0	0	0	0	1	-360	360	0.0852169;
    119	118	    0.119226771	0.024668375	0	1.073871501	0	0	0	0	1	-360	360	0.06443229;
    119	120	    0.135365833	0.027551986	0	1.073871501	0	0	0	0	1	-360	360	0.06443229;
    121	120	    0.259122222	0.078861721	0	1.420281662	0	0	0	0	1	-360	360	0.0852169;
    122	121	    0.17948	    0.029907962	0	1.004589468	0	0	0	0	1	-360	360	0.060275368;
    114	123	    0.064567396	0.01234155	0	1.073871501	0	0	0	0	1	-360	360	0.06443229;
    113	124	    0.088722222	0.02700188	0	1.420281662	0	0	0	0	1	-360	360	0.0852169;
    124	125	    0.155555556	0.047342056	0	1.420281662	0	0	0	0	1	-360	360	0.0852169;
    125	126	    0.112988889	0.034387241	0	1.420281662	0	0	0	0	1	-360	360	0.0852169;
    127	126	    0.136781667	0.03022583	0	0.969948452	0	0	0	0	1	-360	360	0.058196907;
    128	127	    0.088768194	0.019174514	0	0.969948452	0	0	0	0	1	-360	360	0.058196907;
    128	129	    0.016311111	0.005924956	0	1.628127759	0	0	0	0	1	-360	360	0.097687666;
    80	110	    0.2206	    0.067137799	0	1.420281662	0	0	0	0	0	-360	360	0.0852169;
    80	130	    0.429416667	0.042719988	0	0.692820323	0	0	0	0	1	-360	360	0.041569219;
    131	109	    0.326019722	0.053741415	0	0.969948452	0	0	0	0	1	-360	360	0.058196907;
    132	3	    0.142785278	0.068693432	0	1.80133284	0	0	0	0	1	-360	360	0.10807997;
    133	132 	0.077233333	0.023505331	0	1.420281662	0	0	0	0	1	-360	360	0.0852169;
    133	134 	0.1178	    0.035851463	0	1.420281662	0	0	0	0	1	-360	360	0.0852169;
    134	135 	0.089677778	0.027292695	0	1.420281662	0	0	0	0	1	-360	360	0.0852169;
    135	136 	0.084344444	0.025669539	0	1.420281662	0	0	0	0	1	-360	360	0.0852169;
    137	136 	0.114422222	0.034823464	0	1.420281662	0	0	0	0	1	-360	360	0.0852169;
    137	138 	0.095366667	0.029024062	0	1.420281662	0	0	0	0	1	-360	360	0.0852169;
    138	139 	0.0683	    0.020911008	0	1.420281662	0	0	0	0	1	-360	360	0.0852169;
    139	140 	0.142166667	0.044101089	0	1.420281662	0	0	0	0	1	-360	360	0.0852169;
    140	141 	0.137922222	0.041975496	0	1.420281662	0	0	0	0	1	-360	360	0.0852169;
    142	141 	0.093588889	0.02848301	0	1.420281662	0	0	0	0	1	-360	360	0.0852169;
    142	143 	0.098411111	0.029950614	0	1.420281662	0	0	0	0	1	-360	360	0.0852169;
    143	95	    0.145211111	0.044193809	0	1.420281662	0	0	0	0	0	-360	360	0.0852169;
    144	142 	0.168351528	0.02805355	0	1.004589468	0	0	0	0	1	-360	360	0.060275368;
    145	144 	0.333083333	0.033136385	0	0.692820323	0	0	0	0	1	-360	360	0.041569219;
    146	142 	0.106777778	0.03249694	0	1.420281662	0	0	0	0	1	-360	360	0.0852169;
    147	146 	0.096511111	0.029372364	0	1.420281662	0	0	0	0	1	-360	360	0.0852169;
    146	148 	0.352625	0.035080463	0	0.692820323	0	0	0	0	1	-360	360	0.041569219;
    141	149 	0.064777778	0.019714585	0	1.420281662	0	0	0	0	1	-360	360	0.0852169;
    150	149 	0.119244444	0.036291067	0	1.420281662	0	0	0	0	1	-360	360	0.0852169;
    150	151 	0.168062188	0.028005335	0	1.004589468	0	0	0	0	1	-360	360	0.060275368;
    150	152 	0.088344444	0.026886906	0	1.420281662	0	0	0	0	0	-360	360	0.0852169;
    152	153 	0.128155556	0.039003091	0	1.420281662	0	0	0	0	1	-360	360	0.0852169;
    153	154 	0.016778264	0.008928668	0	0.831384388	0	0	0	0	1	-360	360	0.049883063;
    155	153 	0.120625903	0.064191901	0	0.831384388	0	0	0	0	1	-360	360	0.049883063;
    156	153 	0.096222222	0.029284443	0	1.420281662	0	0	0	0	1	-360	360	0.0852169;
    156	157 	0.016274028	0.010763445	0	1.073871501	0	0	0	0	1	-360	360	0.06443229;
    158	156 	0.11188625	0.074000215	0	1.073871501	0	0	0	0	1	-360	360	0.06443229;
    158	159 	0.056621667	0.00943525	0	1.004589468	0	0	0	0	1	-360	360	0.060275368;
    158	160 	0.090421528	0.059803707	0	1.073871501	0	0	0	0	1	-360	360	0.06443229;
    161	159 	0.515041667	0.051238285	0	0.692820323	0	0	0	0	1	-360	360	0.041569219;
    162	161 	0.141331597	0.023551037	0	1.004589468	0	0	0	0	1	-360	360	0.060275368;
    160	163 	0.022489063	0.022701825	0	1.454922678	0	0	0	0	1	-360	360	0.087295361;
    160	147 	0.059340625	0.039665116	0	1.420281662	0	0	0	0	1	-360	360	0.0852169;
    155	164 	0.102819444	0.054716072	0	0.831384388	0	0	0	0	1	-360	360	0.049883063;
    155	165 	0.154930208	0.082447172	0	0.831384388	0	0	0	0	1	-360	360	0.049883063;
    166	136 	0.249375	0.024808764	0	0.692820323	0	0	0	0	1	-360	360	0.041569219;
    167	3	    0.042019306	0.023342797	0	2.078460969	0	0	0	0	1	-360	360	0.124707658;
    168	167 	0.0206	    0.009225701	0	1.80133284	0	0	0	0	1	-360	360	0.10807997;
    169	168 	0.056800208	0.025753315	0	1.80133284	0	0	0	0	1	-360	360	0.10807997;
    169	170 	0.060433819	0.027241972	0	1.80133284	0	0	0	0	1	-360	360	0.10807997;
    170	171 	0.074968264	0.033727724	0	1.80133284	0	0	0	0	1	-360	360	0.10807997;
    172	3	    0.183204209	0.124319448	0	4.711178197	0	0	0	0	1	-360	360	0.282670692;
    173	172 	0.064433333	0.019609756	0	1.420281662	0	0	0	0	1	-360	360	0.0852169;
    174	172 	0.067288889	0.020478821	0	1.420281662	0	0	0	0	1	-360	360	0.0852169;
    175	172 	0.032944444	0.010026371	0	1.420281662	0	0	0	0	1	-360	360	0.0852169;
    176	172 	0.001111111	0.000338158	0	1.420281662	0	0	0	0	1	-360	360	0.0852169;
    177	172 	0.034911111	0.01062491	0	1.420281662	0	0	0	0	1	-360	360	0.0852169;
    178	3	    0.400299236	0.173651861	0	1.524204711	0	0	0	0	1	-360	360	0.091452283;
    179	178 	0.086705972	0.039369065	0	1.80133284	0	0	0	0	1	-360	360	0.10807997;
    179	180 	0.052424861	0.019690041	0	1.420281662	0	0	0	0	0	-360	360	0.0852169;
    179	181 	0.045055556	0.013712288	0	1.420281662	0	0	0	0	1	-360	360	0.0852169;
    181	182 	0.043315764	0.018144007	0	1.420281662	0	0	0	0	1	-360	360	0.0852169;
    182	183 	0.119777778	0.036453383	0	1.420281662	0	0	0	0	1	-360	360	0.0852169;
    183	184 	0.107988889	0.032865532	0	1.420281662	0	0	0	0	1	-360	360	0.0852169;
    184	185 	0.077922222	0.023714988	0	1.420281662	0	0	0	0	1	-360	360	0.0852169;
    186	185 	0.142655556	0.043416047	0	1.420281662	0	0	0	0	1	-360	360	0.0852169;
    186	187 	0.222243889	0.036331319	0	0.969948452	0	0	0	0	1	-360	360	0.058196907;
    187	188 	0.070722222	0.021523728	0	1.420281662	0	0	0	0	1	-360	360	0.0852169;
    189	188 	0.088977778	0.027079656	0	1.420281662	0	0	0	0	1	-360	360	0.0852169;
...
];